glimpse/data/3000/feeder3_final_2.glm
clock {
	timezone EST+5EDT;
	starttime '2000-01-01 0:00:00';
	stoptime '2000-01-01 0:00:03';
}

module powerflow {
	solver_method NR;
	line_capacitance TRUE;
};

module generators;

module tape;

module reliability {
	report_event_log false;
};

//#set relax_naming_rules=1
//#set profiler=1

// parser didn't like this 🤷‍♂️
//#ifdef WANT_VI_DUMP
//#endif

object voltdump {
	name OBJECT_1;
	filename ieee9500bal_volt.csv;
	mode POLAR;
}

object currdump {
	name OBJECT_2;
	filename ieee9500bal_curr.csv;
	mode POLAR;
}

object regulator_configuration {
	name "rcon_feeder_reg3a";
	connect_type WYE_WYE;
	Control MANUAL;
	current_transducer_ratio 1500.000000;
	power_transducer_ratio 60.000000;
	dwell_time 15.000000;
	raise_taps 16;
	lower_taps 16;
	regulation 0.100000;
	Type B;
	compensator_r_setting_A 0.000000;
	compensator_x_setting_A 0.000000;
	tap_pos_A -1;
}

object regulator_configuration {
	name "rcon_feeder_reg2a";
	connect_type WYE_WYE;
	Control MANUAL;
	current_transducer_ratio 1500.000000;
	power_transducer_ratio 60.000000;
	dwell_time 15.000000;
	raise_taps 16;
	lower_taps 16;
	regulation 0.100000;
	Type B;
	compensator_r_setting_A 0.000000;
	compensator_x_setting_A 0.000000;
	tap_pos_A -2;
}

object regulator_configuration {
	name "rcon_feeder_reg3b";
	connect_type WYE_WYE;
	Control MANUAL;
	current_transducer_ratio 1500.000000;
	power_transducer_ratio 60.000000;
	dwell_time 15.000000;
	raise_taps 16;
	lower_taps 16;
	regulation 0.100000;
	Type B;
	compensator_r_setting_B 0.000000;
	compensator_x_setting_B 0.000000;
	tap_pos_B 0;
}

object regulator_configuration {
	name "rcon_vreg2_a";
	connect_type WYE_WYE;
	Control MANUAL;
	current_transducer_ratio 1500.000000;
	power_transducer_ratio 60.000000;
	dwell_time 15.000000;
	raise_taps 16;
	lower_taps 16;
	regulation 0.100000;
	Type B;
	compensator_r_setting_A 0.000000;
	compensator_x_setting_A 0.000000;
	tap_pos_A -5;
}

object regulator_configuration {
	name "rcon_vreg2_b";
	connect_type WYE_WYE;
	Control MANUAL;
	current_transducer_ratio 1500.000000;
	power_transducer_ratio 60.000000;
	dwell_time 15.000000;
	raise_taps 16;
	lower_taps 16;
	regulation 0.100000;
	Type B;
	compensator_r_setting_B 0.000000;
	compensator_x_setting_B 0.000000;
	tap_pos_B -5;
}

object regulator_configuration {
	name "rcon_vreg3_a";
	connect_type WYE_WYE;
	Control MANUAL;
	current_transducer_ratio 1500.000000;
	power_transducer_ratio 60.000000;
	dwell_time 15.000000;
	raise_taps 16;
	lower_taps 16;
	regulation 0.100000;
	Type B;
	compensator_r_setting_A 0.000000;
	compensator_x_setting_A 0.000000;
	tap_pos_A 5;
}

object regulator_configuration {
	name "rcon_feeder_reg1c";
	connect_type WYE_WYE;
	Control MANUAL;
	current_transducer_ratio 1500.000000;
	power_transducer_ratio 60.000000;
	dwell_time 15.000000;
	raise_taps 16;
	lower_taps 16;
	regulation 0.100000;
	Type B;
	compensator_r_setting_C 0.000000;
	compensator_x_setting_C 0.000000;
	tap_pos_C -3;
}

object regulator_configuration {
	name "rcon_feeder_reg1a";
	connect_type WYE_WYE;
	Control MANUAL;
	current_transducer_ratio 1500.000000;
	power_transducer_ratio 60.000000;
	dwell_time 15.000000;
	raise_taps 16;
	lower_taps 16;
	regulation 0.100000;
	Type B;
	compensator_r_setting_A 0.000000;
	compensator_x_setting_A 0.000000;
	tap_pos_A -3;
}

object regulator_configuration {
	name "rcon_feeder_reg2b";
	connect_type WYE_WYE;
	Control MANUAL;
	current_transducer_ratio 1500.000000;
	power_transducer_ratio 60.000000;
	dwell_time 15.000000;
	raise_taps 16;
	lower_taps 16;
	regulation 0.100000;
	Type B;
	compensator_r_setting_B 0.000000;
	compensator_x_setting_B 0.000000;
	tap_pos_B -2;
}

object regulator_configuration {
	name "rcon_feeder_reg3c";
	connect_type WYE_WYE;
	Control MANUAL;
	current_transducer_ratio 1500.000000;
	power_transducer_ratio 60.000000;
	dwell_time 15.000000;
	raise_taps 16;
	lower_taps 16;
	regulation 0.100000;
	Type B;
	compensator_r_setting_C 0.000000;
	compensator_x_setting_C 0.000000;
	tap_pos_C -1;
}

object regulator_configuration {
	name "rcon_feeder_reg1b";
	connect_type WYE_WYE;
	Control MANUAL;
	current_transducer_ratio 1500.000000;
	power_transducer_ratio 60.000000;
	dwell_time 15.000000;
	raise_taps 16;
	lower_taps 16;
	regulation 0.100000;
	Type B;
	compensator_r_setting_B 0.000000;
	compensator_x_setting_B 0.000000;
	tap_pos_B -3;
}

object regulator_configuration {
	name "rcon_feeder_reg2c";
	connect_type WYE_WYE;
	Control MANUAL;
	current_transducer_ratio 1500.000000;
	power_transducer_ratio 60.000000;
	dwell_time 15.000000;
	raise_taps 16;
	lower_taps 16;
	regulation 0.100000;
	Type B;
	compensator_r_setting_C 0.000000;
	compensator_x_setting_C 0.000000;
	tap_pos_C -2;
}

object regulator_configuration {
	name "rcon_vreg4_c";
	connect_type WYE_WYE;
	Control MANUAL;
	current_transducer_ratio 1500.000000;
	power_transducer_ratio 60.000000;
	dwell_time 15.000000;
	raise_taps 16;
	lower_taps 16;
	regulation 0.100000;
	Type B;
	compensator_r_setting_C 0.000000;
	compensator_x_setting_C 0.000000;
	tap_pos_C -4;
}

object regulator_configuration {
	name "rcon_vreg2_c";
	connect_type WYE_WYE;
	Control MANUAL;
	current_transducer_ratio 1500.000000;
	power_transducer_ratio 60.000000;
	dwell_time 15.000000;
	raise_taps 16;
	lower_taps 16;
	regulation 0.100000;
	Type B;
	compensator_r_setting_C 0.000000;
	compensator_x_setting_C 0.000000;
	tap_pos_C -2;
}

object regulator_configuration {
	name "rcon_vreg3_b";
	connect_type WYE_WYE;
	Control MANUAL;
	current_transducer_ratio 1500.000000;
	power_transducer_ratio 60.000000;
	dwell_time 15.000000;
	raise_taps 16;
	lower_taps 16;
	regulation 0.100000;
	Type B;
	compensator_r_setting_B 0.000000;
	compensator_x_setting_B 0.000000;
	tap_pos_B 5;
}

object regulator_configuration {
	name "rcon_vreg4_a";
	connect_type WYE_WYE;
	Control MANUAL;
	current_transducer_ratio 1500.000000;
	power_transducer_ratio 60.000000;
	dwell_time 15.000000;
	raise_taps 16;
	lower_taps 16;
	regulation 0.100000;
	Type B;
	compensator_r_setting_A 0.000000;
	compensator_x_setting_A 0.000000;
	tap_pos_A -3;
}

object regulator_configuration {
	name "rcon_vreg3_c";
	connect_type WYE_WYE;
	Control MANUAL;
	current_transducer_ratio 1500.000000;
	power_transducer_ratio 60.000000;
	dwell_time 15.000000;
	raise_taps 16;
	lower_taps 16;
	regulation 0.100000;
	Type B;
	compensator_r_setting_C 0.000000;
	compensator_x_setting_C 0.000000;
	tap_pos_C 4;
}

object regulator_configuration {
	name "rcon_vreg4_b";
	connect_type WYE_WYE;
	Control MANUAL;
	current_transducer_ratio 1500.000000;
	power_transducer_ratio 60.000000;
	dwell_time 15.000000;
	raise_taps 16;
	lower_taps 16;
	regulation 0.100000;
	Type B;
	compensator_r_setting_B 0.000000;
	compensator_x_setting_B 0.000000;
	tap_pos_B -4;
}

object transformer_configuration {
	name "xcon_ct100B";
	power_rating 100.000;
	primary_voltage 7200.000;
	secondary_voltage 120.000;
	connect_type SINGLE_PHASE_CENTER_TAPPED;
	impedance 0.00600000+0.0136000j;
	impedance1 0.0120000+0.00680000j;
	impedance2 0.0120000+0.00680000j;
	shunt_reactance 200.000000;
	shunt_resistance 500.000000;
}

object transformer_configuration {
	name "xcon_ct250A";
	power_rating 250.000;
	primary_voltage 7200.000;
	secondary_voltage 120.000;
	connect_type SINGLE_PHASE_CENTER_TAPPED;
	impedance 0.00600000+0.0136000j;
	impedance1 0.0120000+0.00680000j;
	impedance2 0.0120000+0.00680000j;
	shunt_reactance 200.000000;
	shunt_resistance 500.000000;
}

object transformer_configuration {
	name "xcon_ct250B";
	power_rating 250.000;
	primary_voltage 7200.000;
	secondary_voltage 120.000;
	connect_type SINGLE_PHASE_CENTER_TAPPED;
	impedance 0.00600000+0.0136000j;
	impedance1 0.0120000+0.00680000j;
	impedance2 0.0120000+0.00680000j;
	shunt_reactance 200.000000;
	shunt_resistance 500.000000;
}

object transformer_configuration {
	name "xcon_ct250C";
	power_rating 250.000;
	primary_voltage 7200.000;
	secondary_voltage 120.000;
	connect_type SINGLE_PHASE_CENTER_TAPPED;
	impedance 0.00600000+0.0136000j;
	impedance1 0.0120000+0.00680000j;
	impedance2 0.0120000+0.00680000j;
	shunt_reactance 200.000000;
	shunt_resistance 500.000000;
}

object transformer_configuration {
	name "xcon_ct25A";
	power_rating 25.000;
	primary_voltage 7200.000;
	secondary_voltage 120.000;
	connect_type SINGLE_PHASE_CENTER_TAPPED;
	impedance 0.00600000+0.0136000j;
	impedance1 0.0120000+0.00680000j;
	impedance2 0.0120000+0.00680000j;
	shunt_reactance 200.000000;
	shunt_resistance 500.000000;
}

object transformer_configuration {
	name "xcon_ct25B";
	power_rating 25.000;
	primary_voltage 7200.000;
	secondary_voltage 120.000;
	connect_type SINGLE_PHASE_CENTER_TAPPED;
	impedance 0.00600000+0.0136000j;
	impedance1 0.0120000+0.00680000j;
	impedance2 0.0120000+0.00680000j;
	shunt_reactance 200.000000;
	shunt_resistance 500.000000;
}

object transformer_configuration {
	name "xcon_ct25C";
	power_rating 25.000;
	primary_voltage 7200.000;
	secondary_voltage 120.000;
	connect_type SINGLE_PHASE_CENTER_TAPPED;
	impedance 0.00600000+0.0136000j;
	impedance1 0.0120000+0.00680000j;
	impedance2 0.0120000+0.00680000j;
	shunt_reactance 200.000000;
	shunt_resistance 500.000000;
}

object transformer_configuration {
	name "xcon_ct75A";
	power_rating 75.000;
	primary_voltage 7200.000;
	secondary_voltage 120.000;
	connect_type SINGLE_PHASE_CENTER_TAPPED;
	impedance 0.00600000+0.0136000j;
	impedance1 0.0120000+0.00680000j;
	impedance2 0.0120000+0.00680000j;
	shunt_reactance 200.000000;
	shunt_resistance 500.000000;
}

object transformer_configuration {
	name "xcon_ct75B";
	power_rating 75.000;
	primary_voltage 7200.000;
	secondary_voltage 120.000;
	connect_type SINGLE_PHASE_CENTER_TAPPED;
	impedance 0.00600000+0.0136000j;
	impedance1 0.0120000+0.00680000j;
	impedance2 0.0120000+0.00680000j;
	shunt_reactance 200.000000;
	shunt_resistance 500.000000;
}

object transformer_configuration {
	name "xcon_ct75C";
	power_rating 75.000;
	primary_voltage 7200.000;
	secondary_voltage 120.000;
	connect_type SINGLE_PHASE_CENTER_TAPPED;
	impedance 0.00600000+0.0136000j;
	impedance1 0.0120000+0.00680000j;
	impedance2 0.0120000+0.00680000j;
	shunt_reactance 200.000000;
	shunt_resistance 500.000000;
}

object transformer_configuration {
	name "xcon_ct50A";
	power_rating 50.000;
	primary_voltage 7200.000;
	secondary_voltage 120.000;
	connect_type SINGLE_PHASE_CENTER_TAPPED;
	impedance 0.00600000+0.0136000j;
	impedance1 0.0120000+0.00680000j;
	impedance2 0.0120000+0.00680000j;
	shunt_reactance 200.000000;
	shunt_resistance 500.000000;
}

object transformer_configuration {
	name "xcon_ct50B";
	power_rating 50.000;
	primary_voltage 7200.000;
	secondary_voltage 120.000;
	connect_type SINGLE_PHASE_CENTER_TAPPED;
	impedance 0.00600000+0.0136000j;
	impedance1 0.0120000+0.00680000j;
	impedance2 0.0120000+0.00680000j;
	shunt_reactance 200.000000;
	shunt_resistance 500.000000;
}

object transformer_configuration {
	name "xcon_ct50C";
	power_rating 50.000;
	primary_voltage 7200.000;
	secondary_voltage 120.000;
	connect_type SINGLE_PHASE_CENTER_TAPPED;
	impedance 0.00600000+0.0136000j;
	impedance1 0.0120000+0.00680000j;
	impedance2 0.0120000+0.00680000j;
	shunt_reactance 200.000000;
	shunt_resistance 500.000000;
}

object transformer_configuration {
	name "xcon_ct5A";
	power_rating 5.000;
	primary_voltage 7200.000;
	secondary_voltage 120.000;
	connect_type SINGLE_PHASE_CENTER_TAPPED;
	impedance 0.00600000+0.0136000j;
	impedance1 0.0120000+0.00680000j;
	impedance2 0.0120000+0.00680000j;
	shunt_reactance 200.000000;
	shunt_resistance 500.000000;
}

object transformer_configuration {
	name "xcon_ct5B";
	power_rating 5.000;
	primary_voltage 7200.000;
	secondary_voltage 120.000;
	connect_type SINGLE_PHASE_CENTER_TAPPED;
	impedance 0.00600000+0.0136000j;
	impedance1 0.0120000+0.00680000j;
	impedance2 0.0120000+0.00680000j;
	shunt_reactance 200.000000;
	shunt_resistance 500.000000;
}

object transformer_configuration {
	name "xcon_ct5C";
	power_rating 5.000;
	primary_voltage 7200.000;
	secondary_voltage 120.000;
	connect_type SINGLE_PHASE_CENTER_TAPPED;
	impedance 0.00600000+0.0136000j;
	impedance1 0.0120000+0.00680000j;
	impedance2 0.0120000+0.00680000j;
	shunt_reactance 200.000000;
	shunt_resistance 500.000000;
}

object transformer_configuration {
	name "xcon_ct15A";
	power_rating 15.000;
	primary_voltage 7200.000;
	secondary_voltage 120.000;
	connect_type SINGLE_PHASE_CENTER_TAPPED;
	impedance 0.00600000+0.0136000j;
	impedance1 0.0120000+0.00680000j;
	impedance2 0.0120000+0.00680000j;
	shunt_reactance 200.000000;
	shunt_resistance 500.000000;
}

object transformer_configuration {
	name "xcon_ct15B";
	power_rating 15.000;
	primary_voltage 7200.000;
	secondary_voltage 120.000;
	connect_type SINGLE_PHASE_CENTER_TAPPED;
	impedance 0.00600000+0.0136000j;
	impedance1 0.0120000+0.00680000j;
	impedance2 0.0120000+0.00680000j;
	shunt_reactance 200.000000;
	shunt_resistance 500.000000;
}

object transformer_configuration {
	name "xcon_ct15C";
	power_rating 15.000;
	primary_voltage 7200.000;
	secondary_voltage 120.000;
	connect_type SINGLE_PHASE_CENTER_TAPPED;
	impedance 0.00600000+0.0136000j;
	impedance1 0.0120000+0.00680000j;
	impedance2 0.0120000+0.00680000j;
	shunt_reactance 200.000000;
	shunt_resistance 500.000000;
}

object transformer_configuration {
	name "xcon_ct37A";
	power_rating 37.500;
	primary_voltage 7200.000;
	secondary_voltage 120.000;
	connect_type SINGLE_PHASE_CENTER_TAPPED;
	impedance 0.00600000+0.0136000j;
	impedance1 0.0120000+0.00680000j;
	impedance2 0.0120000+0.00680000j;
	shunt_reactance 200.000000;
	shunt_resistance 500.000000;
}

object transformer_configuration {
	name "xcon_ct37B";
	power_rating 37.500;
	primary_voltage 7200.000;
	secondary_voltage 120.000;
	connect_type SINGLE_PHASE_CENTER_TAPPED;
	impedance 0.00600000+0.0136000j;
	impedance1 0.0120000+0.00680000j;
	impedance2 0.0120000+0.00680000j;
	shunt_reactance 200.000000;
	shunt_resistance 500.000000;
}

object transformer_configuration {
	name "xcon_ct37C";
	power_rating 37.500;
	primary_voltage 7200.000;
	secondary_voltage 120.000;
	connect_type SINGLE_PHASE_CENTER_TAPPED;
	impedance 0.00600000+0.0136000j;
	impedance1 0.0120000+0.00680000j;
	impedance2 0.0120000+0.00680000j;
	shunt_reactance 200.000000;
	shunt_resistance 500.000000;
}

object transformer_configuration {
	name "xcon_ct10A";
	power_rating 10.000;
	primary_voltage 7200.000;
	secondary_voltage 120.000;
	connect_type SINGLE_PHASE_CENTER_TAPPED;
	impedance 0.00600000+0.0136000j;
	impedance1 0.0120000+0.00680000j;
	impedance2 0.0120000+0.00680000j;
	shunt_reactance 200.000000;
	shunt_resistance 500.000000;
}

object transformer_configuration {
	name "xcon_ct10B";
	power_rating 10.000;
	primary_voltage 7200.000;
	secondary_voltage 120.000;
	connect_type SINGLE_PHASE_CENTER_TAPPED;
	impedance 0.00600000+0.0136000j;
	impedance1 0.0120000+0.00680000j;
	impedance2 0.0120000+0.00680000j;
	shunt_reactance 200.000000;
	shunt_resistance 500.000000;
}

object transformer_configuration {
	name "xcon_ct10C";
	power_rating 10.000;
	primary_voltage 7200.000;
	secondary_voltage 120.000;
	connect_type SINGLE_PHASE_CENTER_TAPPED;
	impedance 0.00600000+0.0136000j;
	impedance1 0.0120000+0.00680000j;
	impedance2 0.0120000+0.00680000j;
	shunt_reactance 200.000000;
	shunt_resistance 500.000000;
}

object transformer_configuration {
	name "xcon_1089-dies1";
	connect_type WYE_WYE;
	primary_voltage 12470.000;
	secondary_voltage 480.000;
	power_rating 750.000;
	resistance 0.004000;
	reactance 0.057500;
}

object transformer_configuration {
	name "xcon_1089-lng1";
	connect_type WYE_WYE;
	primary_voltage 12470.000;
	secondary_voltage 480.000;
	power_rating 2000.000;
	resistance 0.004000;
	reactance 0.057500;
}

object transformer_configuration {
	name "xcon_1209-wt123";
	connect_type WYE_WYE;
	primary_voltage 12470.000;
	secondary_voltage 480.000;
	power_rating 250.000;
	resistance 0.004000;
	reactance 0.057500;
}

object transformer_configuration {
	name "xcon_hvmv69_11sub3";
	connect_type WYE_WYE;
	primary_voltage 69000.000;
	secondary_voltage 12470.000;
	power_rating 20000.000;
	resistance 0.013400;
	reactance 0.079400;
}

object transformer_configuration {
	name "xcon_hvmv69_11sub2";
	connect_type WYE_WYE;
	primary_voltage 69000.000;
	secondary_voltage 12470.000;
	power_rating 20000.000;
	resistance 0.013400;
	reactance 0.079400;
}

object transformer_configuration {
	name "xcon_hvmv115_69sub";
	connect_type DELTA_GWYE;
	primary_voltage 115000.000;
	secondary_voltage 69000.000;
	power_rating 75000.000;
	resistance 0.013400;
	reactance 0.070500;
}

object transformer_configuration {
	name "xcon_hvmv69_11sub1";
	connect_type WYE_WYE;
	primary_voltage 69000.000;
	secondary_voltage 12470.000;
	power_rating 20000.000;
	resistance 0.013400;
	reactance 0.079400;
}

object transformer_configuration {
	name "xcon_2001-mt123";
	connect_type WYE_WYE;
	primary_voltage 12470.000;
	secondary_voltage 480.000;
	power_rating 750.000;
	resistance 0.004000;
	reactance 0.057500;
}

object transformer_configuration {
	name "xcon_1069-mt1";
	connect_type WYE_WYE;
	primary_voltage 12470.000;
	secondary_voltage 480.000;
	power_rating 300.000;
	resistance 0.004000;
	reactance 0.057500;
}

object transformer_configuration {
	name "xcon_1142-lng1";
	connect_type WYE_WYE;
	primary_voltage 12470.000;
	secondary_voltage 480.000;
	power_rating 150.000;
	resistance 0.004000;
	reactance 0.057500;
}

object transformer_configuration {
	name "xcon_2001-ess12";
	connect_type WYE_WYE;
	primary_voltage 12470.000;
	secondary_voltage 480.000;
	power_rating 750.000;
	resistance 0.004000;
	reactance 0.057500;
}

object transformer_configuration {
	name "xcon_1209-dies1";
	connect_type WYE_WYE;
	primary_voltage 12470.000;
	secondary_voltage 480.000;
	power_rating 750.000;
	resistance 0.004000;
	reactance 0.057500;
}

object overhead_line_conductor {
	name "wire_1/0_3w_cs";
	geometric_mean_radius 0.011417;
	diameter 0.398000;
	resistance 0.971519;
	rating.summer.continuous 200.00;
	rating.summer.emergency 200.00;
	rating.winter.continuous 200.00;
	rating.winter.emergency 200.00;
}

object overhead_line_conductor {
	name "wire_1/0_acsr";
	geometric_mean_radius 0.004458;
	diameter 0.398000;
	resistance 1.040999;
	rating.summer.continuous 260.00;
	rating.summer.emergency 260.00;
	rating.winter.continuous 260.00;
	rating.winter.emergency 260.00;
}

object overhead_line_conductor {
	name "wire_4_wpal";
	geometric_mean_radius 0.007000;
	diameter 0.250000;
	resistance 2.459419;
	rating.summer.continuous 150.00;
	rating.summer.emergency 150.00;
	rating.winter.continuous 150.00;
	rating.winter.emergency 150.00;
}

object overhead_line_conductor {
	name "wire_4_acsr";
	geometric_mean_radius 0.004367;
	diameter 0.250000;
	resistance 2.530689;
	rating.summer.continuous 150.00;
	rating.summer.emergency 150.00;
	rating.winter.continuous 150.00;
	rating.winter.emergency 150.00;
}

object overhead_line_conductor {
	name "wire_4_dpx";
	geometric_mean_radius 0.007000;
	diameter 0.250000;
	resistance 2.449900;
	rating.summer.continuous 136.00;
	rating.summer.emergency 136.00;
	rating.winter.continuous 136.00;
	rating.winter.emergency 136.00;
}

object overhead_line_conductor {
	name "wire_2/0_wpal";
	geometric_mean_radius 0.005100;
	diameter 0.447000;
	resistance 0.853001;
	rating.summer.continuous 300.00;
	rating.summer.emergency 300.00;
	rating.winter.continuous 300.00;
	rating.winter.emergency 300.00;
}

object overhead_line_conductor {
	name "wire_397_acsr";
	geometric_mean_radius 0.024000;
	diameter 0.743000;
	resistance 0.256999;
	rating.summer.continuous 630.00;
	rating.summer.emergency 630.00;
	rating.winter.continuous 630.00;
	rating.winter.emergency 630.00;
}

object overhead_line_conductor {
	name "wire_397_aac_treewire";
	geometric_mean_radius 0.024000;
	diameter 0.743000;
	resistance 0.283008;
	rating.summer.continuous 526.00;
	rating.summer.emergency 526.00;
	rating.winter.continuous 526.00;
	rating.winter.emergency 526.00;
}

object overhead_line_conductor {
	name "wire_2_acsr";
	geometric_mean_radius 0.004183;
	diameter 0.316000;
	resistance 1.625700;
	rating.summer.continuous 200.00;
	rating.summer.emergency 200.00;
	rating.winter.continuous 200.00;
	rating.winter.emergency 200.00;
}

object overhead_line_conductor {
	name "wire_2_wpal";
	geometric_mean_radius 0.004183;
	diameter 0.316000;
	resistance 1.690130;
	rating.summer.continuous 155.00;
	rating.summer.emergency 155.00;
	rating.winter.continuous 155.00;
	rating.winter.emergency 155.00;
}

object overhead_line_conductor {
	name "wire_6_wpal";
	geometric_mean_radius 0.003942;
	diameter 0.198000;
	resistance 3.910899;
	rating.summer.continuous 115.00;
	rating.summer.emergency 115.00;
	rating.winter.continuous 115.00;
	rating.winter.emergency 115.00;
}

object overhead_line_conductor {
	name "wire_4_tpx";
	geometric_mean_radius 0.007000;
	diameter 0.250000;
	resistance 2.449900;
	rating.summer.continuous 115.00;
	rating.summer.emergency 115.00;
	rating.winter.continuous 115.00;
	rating.winter.emergency 115.00;
}

object overhead_line_conductor {
	name "wire_1/0_tpx";
	geometric_mean_radius 0.011417;
	diameter 0.398000;
	resistance 0.184000;
	rating.summer.continuous 205.00;
	rating.summer.emergency 205.00;
	rating.winter.continuous 205.00;
	rating.winter.emergency 205.00;
}

object overhead_line_conductor {
	name "wire_4/0_tpx";
	geometric_mean_radius 0.015767;
	diameter 0.563000;
	resistance 0.485760;
	rating.summer.continuous 318.00;
	rating.summer.emergency 318.00;
	rating.winter.continuous 318.00;
	rating.winter.emergency 318.00;
}

object overhead_line_conductor {
	name "wire_2/0_acsr";
	geometric_mean_radius 0.005100;
	diameter 0.447000;
	resistance 0.853001;
	rating.summer.continuous 300.00;
	rating.summer.emergency 300.00;
	rating.winter.continuous 300.00;
	rating.winter.emergency 300.00;
}

object line_spacing {
	name "spc_3ph_h-4_acsr2_acsr2_acsr4_wpal_ABCN";
	distance_AB 3.2016;
	distance_AC 4.0000;
	distance_AN 5.5902;
	distance_AE 32.0000;
	distance_BC 2.5000;
	distance_BN 7.0000;
	distance_BE 34.0000;
	distance_CN 5.2202;
	distance_CE 32.0000;
	distance_NE 27.0000;
}

object line_spacing {
	name "spc_1ph-4_acsrxx1/0_tpx_AN";
	distance_AN 7.5664;
	distance_AE 34.5000;
	distance_NE 27.0000;
}

object line_spacing {
	name "spc_1ph-x4_wpalx4_wpal_BN";
	distance_BN 7.5664;
	distance_BE 34.5000;
	distance_NE 27.0000;
}

object line_spacing {
	name "spc_1ph-x4_wpalx1/0_tpx_BN";
	distance_BN 7.5664;
	distance_BE 34.5000;
	distance_NE 27.0000;
}

object line_spacing {
	name "spc_3ph_h-4_wpal4_wpal4_wpal1/0_tpx_ABCN";
	distance_AB 3.2016;
	distance_AC 4.0000;
	distance_AN 5.5902;
	distance_AE 32.0000;
	distance_BC 2.5000;
	distance_BN 7.0000;
	distance_BE 34.0000;
	distance_CN 5.2202;
	distance_CE 32.0000;
	distance_NE 27.0000;
}

object line_spacing {
	name "spc_3ph_h-4_acsr4_acsr4_acsr4_wpal_ABCN";
	distance_AB 3.2016;
	distance_AC 4.0000;
	distance_AN 5.5902;
	distance_AE 32.0000;
	distance_BC 2.5000;
	distance_BN 7.0000;
	distance_BE 34.0000;
	distance_CN 5.2202;
	distance_CE 32.0000;
	distance_NE 27.0000;
}

object line_spacing {
	name "spc_3ph_h-2/0_acsr2/0_acsr2/0_acsr2_acsr_ABCN";
	distance_AB 3.2016;
	distance_AC 4.0000;
	distance_AN 5.5902;
	distance_AE 32.0000;
	distance_BC 2.5000;
	distance_BN 7.0000;
	distance_BE 34.0000;
	distance_CN 5.2202;
	distance_CE 32.0000;
	distance_NE 27.0000;
}

object line_spacing {
	name "spc_1ph-x4_wpalx2_acsr_BN";
	distance_BN 7.5664;
	distance_BE 34.5000;
	distance_NE 27.0000;
}

object line_spacing {
	name "spc_1ph-xx6_wpal6_wpal_CN";
	distance_CN 7.5664;
	distance_CE 34.5000;
	distance_NE 27.0000;
}

object line_spacing {
	name "spc_1ph-x4_acsrx4_wpal_BN";
	distance_BN 7.5664;
	distance_BE 34.5000;
	distance_NE 27.0000;
}

object line_spacing {
	name "spc_1ph-xx4_wpal4_wpal_CN";
	distance_CN 7.5664;
	distance_CE 34.5000;
	distance_NE 27.0000;
}

object line_spacing {
	name "spc_1ph-2_acsrxx4_wpal_AN";
	distance_AN 7.5664;
	distance_AE 34.5000;
	distance_NE 27.0000;
}

object line_spacing {
	name "spc_1ph-x4_acsrx1/0_tpx_BN";
	distance_BN 7.5664;
	distance_BE 34.5000;
	distance_NE 27.0000;
}

object line_spacing {
	name "spc_1ph-x2_acsrx1/0_tpx_BN";
	distance_BN 7.5664;
	distance_BE 34.5000;
	distance_NE 27.0000;
}

object line_spacing {
	name "spc_1ph-x4_acsrx4_tpx_BN";
	distance_BN 7.5664;
	distance_BE 34.5000;
	distance_NE 27.0000;
}

object line_spacing {
	name "spc_3ph_h-2_acsr2_acsr4_acsr4_acsr_ABCN";
	distance_AB 3.2016;
	distance_AC 4.0000;
	distance_AN 5.5902;
	distance_AE 32.0000;
	distance_BC 2.5000;
	distance_BN 7.0000;
	distance_BE 34.0000;
	distance_CN 5.2202;
	distance_CE 32.0000;
	distance_NE 27.0000;
}

object line_spacing {
	name "spc_3ph_h-397_acsr397_acsr397_acsr2/0_wpal_ABCN";
	distance_AB 3.2016;
	distance_AC 4.0000;
	distance_AN 5.5902;
	distance_AE 32.0000;
	distance_BC 2.5000;
	distance_BN 7.0000;
	distance_BE 34.0000;
	distance_CN 5.2202;
	distance_CE 32.0000;
	distance_NE 27.0000;
}

object line_spacing {
	name "spc_1ph-x4_acsrx1/0_3w_cs_BN";
	distance_BN 7.5664;
	distance_BE 34.5000;
	distance_NE 27.0000;
}

object line_spacing {
	name "spc_1p_1/0_axnj_db_A";
	distance_AE -4.0026;
}

object line_spacing {
	name "spc_1p_1/0_axnj_db_B";
	distance_BE -4.0026;
}

object line_spacing {
	name "spc_1p_1/0_axnj_db_C";
	distance_CE -4.0026;
}

object line_spacing {
	name "spc_1ph-2_acsrxx4_acsr_AN";
	distance_AN 7.5664;
	distance_AE 34.5000;
	distance_NE 27.0000;
}

object line_spacing {
	name "spc_1ph-xx4_acsr1/0_acsr_CN";
	distance_CN 7.5664;
	distance_CE 34.5000;
	distance_NE 27.0000;
}

object line_spacing {
	name "spc_1ph-2_acsrxx2_acsr_AN";
	distance_AN 7.5664;
	distance_AE 34.5000;
	distance_NE 27.0000;
}

object line_spacing {
	name "spc_1ph-2_acsrxx2_acsr_CN";
	distance_CN 7.5664;
	distance_CE 34.5000;
	distance_NE 27.0000;
}

object line_spacing {
	name "spc_1ph-xx4_wpal4_acsr_CN";
	distance_CN 7.5664;
	distance_CE 34.5000;
	distance_NE 27.0000;
}

object line_spacing {
	name "spc_3p_1/0_axnj_db_ABC";
	distance_AB 0.5000;
	distance_AC 1.0000;
	distance_AE -4.0026;
	distance_BC 0.5000;
	distance_BE -4.0026;
	distance_CE -4.0026;
}

object line_spacing {
	name "spc_1ph-4_acsrxx4_acsr_AN";
	distance_AN 7.5664;
	distance_AE 34.5000;
	distance_NE 27.0000;
}

object line_spacing {
	name "spc_1ph-4_acsrxx4_acsr_CN";
	distance_CN 7.5664;
	distance_CE 34.5000;
	distance_NE 27.0000;
}

object line_spacing {
	name "spc_1ph-2_acsrxx4/0_tpx_AN";
	distance_AN 7.5664;
	distance_AE 34.5000;
	distance_NE 27.0000;
}

object line_spacing {
	name "spc_1ph-x4_acsrx4_dpx_BN";
	distance_BN 7.5664;
	distance_BE 34.5000;
	distance_NE 27.0000;
}

object line_spacing {
	name "spc_1ph-xx4_acsr4_tpx_CN";
	distance_CN 7.5664;
	distance_CE 34.5000;
	distance_NE 27.0000;
}

object line_spacing {
	name "spc_1ph-4_acsrxx6_wpal_AN";
	distance_AN 7.5664;
	distance_AE 34.5000;
	distance_NE 27.0000;
}

object line_spacing {
	name "spc_1ph-x4_acsrx2_wpal_BN";
	distance_BN 7.5664;
	distance_BE 34.5000;
	distance_NE 27.0000;
}

object line_spacing {
	name "spc_1ph-x4_wpalx4_acsr_BN";
	distance_BN 7.5664;
	distance_BE 34.5000;
	distance_NE 27.0000;
}

object line_spacing {
	name "spc_1ph-xx4_acsr4_acsr_AN";
	distance_AN 7.5664;
	distance_AE 34.5000;
	distance_NE 27.0000;
}

object line_spacing {
	name "spc_1ph-xx4_acsr4_acsr_BN";
	distance_BN 7.5664;
	distance_BE 34.5000;
	distance_NE 27.0000;
}

object line_spacing {
	name "spc_1ph-xx4_acsr4_acsr_CN";
	distance_CN 7.5664;
	distance_CE 34.5000;
	distance_NE 27.0000;
}

object line_spacing {
	name "spc_1ph-xx4_wpal1/0_tpx_CN";
	distance_CN 7.5664;
	distance_CE 34.5000;
	distance_NE 27.0000;
}

object line_spacing {
	name "spc_2ph_h-2_acsrx2_acsr2_acsr_ACN";
	distance_AC 4.0000;
	distance_AN 5.5902;
	distance_AE 32.0000;
	distance_CN 5.2202;
	distance_CE 32.0000;
	distance_NE 27.0000;
}

object line_spacing {
	name "spc_3ph_h-4_wpal4_wpal4_wpal4_wpal_ABCN";
	distance_AB 3.2016;
	distance_AC 4.0000;
	distance_AN 5.5902;
	distance_AE 32.0000;
	distance_BC 2.5000;
	distance_BN 7.0000;
	distance_BE 34.0000;
	distance_CN 5.2202;
	distance_CE 32.0000;
	distance_NE 27.0000;
}

object line_spacing {
	name "spc_1ph-2_acsrxx1/0_tpx_AN";
	distance_AN 7.5664;
	distance_AE 34.5000;
	distance_NE 27.0000;
}

object line_spacing {
	name "spc_1ph-x2_acsrx1/0_3w_cs_BN";
	distance_BN 7.5664;
	distance_BE 34.5000;
	distance_NE 27.0000;
}

object line_spacing {
	name "spc_3ph_h-2/0_acsr2/0_acsr2/0_acsr4_acsr_ABCN";
	distance_AB 3.2016;
	distance_AC 4.0000;
	distance_AN 5.5902;
	distance_AE 32.0000;
	distance_BC 2.5000;
	distance_BN 7.0000;
	distance_BE 34.0000;
	distance_CN 5.2202;
	distance_CE 32.0000;
	distance_NE 27.0000;
}

object line_spacing {
	name "spc_1ph-4_wpalxx2_wpal_AN";
	distance_AN 7.5664;
	distance_AE 34.5000;
	distance_NE 27.0000;
}

object line_spacing {
	name "spc_1ph-x2_acsrx4_tpx_BN";
	distance_BN 7.5664;
	distance_BE 34.5000;
	distance_NE 27.0000;
}

object line_spacing {
	name "spc_3ph-69kv_397_treewire_ABCN";
	distance_AB 6.4185;
	distance_AC 10.0066;
	distance_AN 16.0806;
	distance_AE 39.9934;
	distance_BC 6.3929;
	distance_BN 11.2716;
	distance_BE 45.0131;
	distance_CN 6.1885;
	distance_CE 50.0000;
	distance_NE 56.0039;
}

object line_spacing {
	name "spc_1ph-x2_acsrx4_acsr_BN";
	distance_BN 7.5664;
	distance_BE 34.5000;
	distance_NE 27.0000;
}

object line_spacing {
	name "spc_1ph-4_wpalxx4_acsr_AN";
	distance_AN 7.5664;
	distance_AE 34.5000;
	distance_NE 27.0000;
}

object line_spacing {
	name "spc_1ph-2_wpalxx2_wpal_AN";
	distance_AN 7.5664;
	distance_AE 34.5000;
	distance_NE 27.0000;
}

object line_spacing {
	name "spc_1ph-4_acsrxx2_acsr_AN";
	distance_AN 7.5664;
	distance_AE 34.5000;
	distance_NE 27.0000;
}

object line_spacing {
	name "spc_1ph-4_acsrxx2_acsr_CN";
	distance_CN 7.5664;
	distance_CE 34.5000;
	distance_NE 27.0000;
}

object line_spacing {
	name "spc_1ph-x4_acsrx4_acsr_AN";
	distance_AN 7.5664;
	distance_AE 34.5000;
	distance_NE 27.0000;
}

object line_spacing {
	name "spc_1ph-x4_acsrx4_acsr_BN";
	distance_BN 7.5664;
	distance_BE 34.5000;
	distance_NE 27.0000;
}

object line_spacing {
	name "spc_3ph_h-4_acsr4_acsr4_acsr4_acsr_ABCN";
	distance_AB 3.2016;
	distance_AC 4.0000;
	distance_AN 5.5902;
	distance_AE 32.0000;
	distance_BC 2.5000;
	distance_BN 7.0000;
	distance_BE 34.0000;
	distance_CN 5.2202;
	distance_CE 32.0000;
	distance_NE 27.0000;
}

object line_spacing {
	name "spc_1ph-xx2_acsr4_dpx_CN";
	distance_CN 7.5664;
	distance_CE 34.5000;
	distance_NE 27.0000;
}

object line_spacing {
	name "spc_1ph-x2_acsrx2_acsr_AN";
	distance_AN 7.5664;
	distance_AE 34.5000;
	distance_NE 27.0000;
}

object line_spacing {
	name "spc_1ph-x2_acsrx2_acsr_BN";
	distance_BN 7.5664;
	distance_BE 34.5000;
	distance_NE 27.0000;
}

object line_spacing {
	name "spc_1ph-x2_acsrx2_acsr_CN";
	distance_CN 7.5664;
	distance_CE 34.5000;
	distance_NE 27.0000;
}

object line_spacing {
	name "spc_1ph-4_acsrxx4_wpal_AN";
	distance_AN 7.5664;
	distance_AE 34.5000;
	distance_NE 27.0000;
}

object line_spacing {
	name "spc_1ph-xx4_acsr2_acsr_CN";
	distance_CN 7.5664;
	distance_CE 34.5000;
	distance_NE 27.0000;
}

object line_spacing {
	name "spc_1ph-4_wpalxx1/0_tpx_AN";
	distance_AN 7.5664;
	distance_AE 34.5000;
	distance_NE 27.0000;
}

object line_spacing {
	name "spc_3ph_h-397_acsr397_acsr397_acsr397_acsr_ABCN";
	distance_AB 3.2016;
	distance_AC 4.0000;
	distance_AN 5.5902;
	distance_AE 32.0000;
	distance_BC 2.5000;
	distance_BN 7.0000;
	distance_BE 34.0000;
	distance_CN 5.2202;
	distance_CE 32.0000;
	distance_NE 27.0000;
}

object line_spacing {
	name "spc_1ph-xx2_acsr1/0_tpx_CN";
	distance_CN 7.5664;
	distance_CE 34.5000;
	distance_NE 27.0000;
}

object line_spacing {
	name "spc_3ph_h-2_acsr2_acsr2_acsr2_acsr_ABCN";
	distance_AB 3.2016;
	distance_AC 4.0000;
	distance_AN 5.5902;
	distance_AE 32.0000;
	distance_BC 2.5000;
	distance_BN 7.0000;
	distance_BE 34.0000;
	distance_CN 5.2202;
	distance_CE 32.0000;
	distance_NE 27.0000;
}

object line_spacing {
	name "spc_1ph-xx4_acsr4_wpal_AN";
	distance_AN 7.5664;
	distance_AE 34.5000;
	distance_NE 27.0000;
}

object line_spacing {
	name "spc_1ph-xx4_acsr4_wpal_CN";
	distance_CN 7.5664;
	distance_CE 34.5000;
	distance_NE 27.0000;
}

object line_spacing {
	name "spc_1ph-2/0_acsrxx2_acsr_AN";
	distance_AN 7.5664;
	distance_AE 34.5000;
	distance_NE 27.0000;
}

object line_spacing {
	name "spc_1ph-xx2/0_acsr1/0_tpx_CN";
	distance_CN 7.5664;
	distance_CE 34.5000;
	distance_NE 27.0000;
}

object line_spacing {
	name "spc_3ph_h-397_acsr397_acsr397_acsr2/0_acsr_ABCN";
	distance_AB 3.2016;
	distance_AC 4.0000;
	distance_AN 5.5902;
	distance_AE 32.0000;
	distance_BC 2.5000;
	distance_BN 7.0000;
	distance_BE 34.0000;
	distance_CN 5.2202;
	distance_CE 32.0000;
	distance_NE 27.0000;
}

object line_spacing {
	name "spc_1ph-xx2_acsr2_acsr_AN";
	distance_AN 7.5664;
	distance_AE 34.5000;
	distance_NE 27.0000;
}

object line_spacing {
	name "spc_1ph-xx2_acsr2_acsr_CN";
	distance_CN 7.5664;
	distance_CE 34.5000;
	distance_NE 27.0000;
}

object line_spacing {
	name "spc_3ph_h-2/0_acsr2/0_acsr2/0_acsr2_wpal_ABCN";
	distance_AB 3.2016;
	distance_AC 4.0000;
	distance_AN 5.5902;
	distance_AE 32.0000;
	distance_BC 2.5000;
	distance_BN 7.0000;
	distance_BE 34.0000;
	distance_CN 5.2202;
	distance_CE 32.0000;
	distance_NE 27.0000;
}

object line_spacing {
	name "spc_1ph-4_wpalxx4_wpal_AN";
	distance_AN 7.5664;
	distance_AE 34.5000;
	distance_NE 27.0000;
}

object line_spacing {
	name "spc_1ph-4_wpalxx4_wpal_CN";
	distance_CN 7.5664;
	distance_CE 34.5000;
	distance_NE 27.0000;
}

object line_spacing {
	name "spc_3ph_h-4_acsr4_acsr4_acsr4_tpx_ABCN";
	distance_AB 3.2016;
	distance_AC 4.0000;
	distance_AN 5.5902;
	distance_AE 32.0000;
	distance_BC 2.5000;
	distance_BN 7.0000;
	distance_BE 34.0000;
	distance_CN 5.2202;
	distance_CE 32.0000;
	distance_NE 27.0000;
}

object line_spacing {
	name "spc_1ph-4_acsrxx1/0_3w_cs_AN";
	distance_AN 7.5664;
	distance_AE 34.5000;
	distance_NE 27.0000;
}

object line_configuration {
	name "lcon_3ph_h-397_acsr397_acsr397_acsr397_acsr_ln5742828-1";
	spacing "spc_3ph_h-397_acsr397_acsr397_acsr397_acsr_ABCN";
	conductor_A "wire_397_acsr";
	conductor_B "wire_397_acsr";
	conductor_C "wire_397_acsr";
	conductor_N "wire_397_acsr";
}

object line_configuration {
	name "lcon_1ph-4_acsrxx4_wpal_ln6108134-1";
	spacing "spc_1ph-4_acsrxx4_wpal_AN";
	conductor_A "wire_4_acsr";
	conductor_N "wire_4_wpal";
}

object line_configuration {
	name "lcon_1ph-4_wpalxx1/0_tpx_ln5895784-1";
	spacing "spc_1ph-4_wpalxx1/0_tpx_AN";
	conductor_A "wire_4_wpal";
	conductor_N "wire_1/0_tpx";
}

object line_configuration {
	name "lcon_1ph-4_acsrxx2_acsr_ln6019479-1";
	spacing "spc_1ph-4_acsrxx2_acsr_CN";
	conductor_C "wire_4_acsr";
	conductor_N "wire_2_acsr";
}

object line_configuration {
	name "lcon_1ph-x2_acsrx1/0_tpx_ln5532786-2";
	spacing "spc_1ph-x2_acsrx1/0_tpx_BN";
	conductor_B "wire_2_acsr";
	conductor_N "wire_1/0_tpx";
}

object line_configuration {
	name "lcon_1ph-x4_acsrx2_wpal_ln5496577-1";
	spacing "spc_1ph-x4_acsrx2_wpal_BN";
	conductor_B "wire_4_acsr";
	conductor_N "wire_2_wpal";
}

object line_configuration {
	name "lcon_1ph-x2_acsrx1/0_3w_cs_ln6043468-3";
	spacing "spc_1ph-x2_acsrx1/0_3w_cs_BN";
	conductor_B "wire_2_acsr";
	conductor_N "wire_1/0_3w_cs";
}

object line_configuration {
	name "lcon_1ph-4_acsrxx6_wpal_ln5895785-1";
	spacing "spc_1ph-4_acsrxx6_wpal_AN";
	conductor_A "wire_4_acsr";
	conductor_N "wire_6_wpal";
}

object line_configuration {
	name "lcon_3ph_h-397_acsr397_acsr397_acsr2/0_wpal_ln6291244-1";
	spacing "spc_3ph_h-397_acsr397_acsr397_acsr2/0_wpal_ABCN";
	conductor_A "wire_397_acsr";
	conductor_B "wire_397_acsr";
	conductor_C "wire_397_acsr";
	conductor_N "wire_2/0_wpal";
}

object line_configuration {
	name "lcon_1ph-xx2_acsr4_dpx_ln5744331-1";
	spacing "spc_1ph-xx2_acsr4_dpx_CN";
	conductor_C "wire_2_acsr";
	conductor_N "wire_4_dpx";
}

object line_configuration {
	name "lcon_1ph-4_acsrxx1/0_3w_cs_ln5686244-1";
	spacing "spc_1ph-4_acsrxx1/0_3w_cs_AN";
	conductor_A "wire_4_acsr";
	conductor_N "wire_1/0_3w_cs";
}

object line_configuration {
	name "lcon_1ph-4_wpalxx4_wpal_ln6198049-1";
	spacing "spc_1ph-4_wpalxx4_wpal_CN";
	conductor_C "wire_4_wpal";
	conductor_N "wire_4_wpal";
}

object line_configuration {
	name "lcon_1p_1/0_axnj_db_ln8945010-1";
	spacing "spc_1p_1/0_axnj_db_C";
	conductor_C "cncab_1/0_al_15kv_1/3";
}

object line_configuration {
	name "lcon_1ph-2_acsrxx1/0_tpx_ln5528573-2";
	spacing "spc_1ph-2_acsrxx1/0_tpx_AN";
	conductor_A "wire_2_acsr";
	conductor_N "wire_1/0_tpx";
}

object line_configuration {
	name "lcon_1ph-2_acsrxx2_acsr_ln6320335-1";
	spacing "spc_1ph-2_acsrxx2_acsr_AN";
	conductor_A "wire_2_acsr";
	conductor_N "wire_2_acsr";
}

object line_configuration {
	name "lcon_3ph_h-4_acsr4_acsr4_acsr4_tpx_ln5742835-1";
	spacing "spc_3ph_h-4_acsr4_acsr4_acsr4_tpx_ABCN";
	conductor_A "wire_4_acsr";
	conductor_B "wire_4_acsr";
	conductor_C "wire_4_acsr";
	conductor_N "wire_4_tpx";
}

object line_configuration {
	name "lcon_1ph-xx4_acsr1/0_acsr_ln5852082-1";
	spacing "spc_1ph-xx4_acsr1/0_acsr_CN";
	conductor_C "wire_4_acsr";
	conductor_N "wire_1/0_acsr";
}

object line_configuration {
	name "lcon_1ph-x2_acsrx4_tpx_ln6169266-1";
	spacing "spc_1ph-x2_acsrx4_tpx_BN";
	conductor_B "wire_2_acsr";
	conductor_N "wire_4_tpx";
}

object line_configuration {
	name "lcon_3ph_h-4_acsr2_acsr2_acsr4_wpal_ln5774458-1";
	spacing "spc_3ph_h-4_acsr2_acsr2_acsr4_wpal_ABCN";
	conductor_A "wire_4_acsr";
	conductor_B "wire_2_acsr";
	conductor_C "wire_2_acsr";
	conductor_N "wire_4_wpal";
}

object line_configuration {
	name "lcon_1ph-xx4_wpal1/0_tpx_ln5956462-1";
	spacing "spc_1ph-xx4_wpal1/0_tpx_CN";
	conductor_C "wire_4_wpal";
	conductor_N "wire_1/0_tpx";
}

object line_configuration {
	name "lcon_1ph-xx2_acsr2_acsr_ln6411379-1";
	spacing "spc_1ph-xx2_acsr2_acsr_AN";
	conductor_A "wire_2_acsr";
	conductor_N "wire_2_acsr";
}

object line_configuration {
	name "lcon_3ph_h-2/0_acsr2/0_acsr2/0_acsr4_acsr_ln5898194-1";
	spacing "spc_3ph_h-2/0_acsr2/0_acsr2/0_acsr4_acsr_ABCN";
	conductor_A "wire_2/0_acsr";
	conductor_B "wire_2/0_acsr";
	conductor_C "wire_2/0_acsr";
	conductor_N "wire_4_acsr";
}

object line_configuration {
	name "lcon_1ph-x4_acsrx1/0_tpx_ln5562952-1";
	spacing "spc_1ph-x4_acsrx1/0_tpx_BN";
	conductor_B "wire_4_acsr";
	conductor_N "wire_1/0_tpx";
}

object line_configuration {
	name "lcon_1ph-2_acsrxx4/0_tpx_ln6103927-1";
	spacing "spc_1ph-2_acsrxx4/0_tpx_AN";
	conductor_A "wire_2_acsr";
	conductor_N "wire_4/0_tpx";
}

object line_configuration {
	name "lcon_1ph-4_wpalxx2_wpal_ln5561444-1";
	spacing "spc_1ph-4_wpalxx2_wpal_AN";
	conductor_A "wire_4_wpal";
	conductor_N "wire_2_wpal";
}

object line_configuration {
	name "lcon_3ph_h-2/0_acsr2/0_acsr2/0_acsr2_acsr_ln1047pvfrm-2";
	spacing "spc_3ph_h-2/0_acsr2/0_acsr2/0_acsr2_acsr_ABCN";
	conductor_A "wire_2/0_acsr";
	conductor_B "wire_2/0_acsr";
	conductor_C "wire_2/0_acsr";
	conductor_N "wire_2_acsr";
}

object line_configuration {
	name "lcon_1ph-x4_wpalx2_acsr_ln5472350-1";
	spacing "spc_1ph-x4_wpalx2_acsr_BN";
	conductor_B "wire_4_wpal";
	conductor_N "wire_2_acsr";
}

object line_configuration {
	name "lcon_1ph-2_wpalxx2_wpal_ln6409800-1";
	spacing "spc_1ph-2_wpalxx2_wpal_AN";
	conductor_A "wire_2_wpal";
	conductor_N "wire_2_wpal";
}

object line_configuration {
	name "lcon_3ph_h-2_acsr2_acsr4_acsr4_acsr_ln5655838-1";
	spacing "spc_3ph_h-2_acsr2_acsr4_acsr4_acsr_ABCN";
	conductor_A "wire_2_acsr";
	conductor_B "wire_2_acsr";
	conductor_C "wire_4_acsr";
	conductor_N "wire_4_acsr";
}

object line_configuration {
	name "lcon_1ph-xx4_acsr4_wpal_ln5833622-1";
	spacing "spc_1ph-xx4_acsr4_wpal_CN";
	conductor_C "wire_4_acsr";
	conductor_N "wire_4_wpal";
}

object line_configuration {
	name "lcon_3p_1/0_axnj_db_ln8979254-2";
	spacing "spc_3p_1/0_axnj_db_ABC";
	conductor_A "cncab_1/0_al_15kv_1/3";
	conductor_B "cncab_1/0_al_15kv_1/3";
	conductor_C "cncab_1/0_al_15kv_1/3";
}

object line_configuration {
	name "lcon_1ph-2_acsrxx4_acsr_ln5589097-1";
	spacing "spc_1ph-2_acsrxx4_acsr_AN";
	conductor_A "wire_2_acsr";
	conductor_N "wire_4_acsr";
}

object line_configuration {
	name "lcon_1ph-xx2_acsr2_acsr_ln5565091-1";
	spacing "spc_1ph-xx2_acsr2_acsr_CN";
	conductor_C "wire_2_acsr";
	conductor_N "wire_2_acsr";
}

object line_configuration {
	name "lcon_3ph_h-2_acsr2_acsr2_acsr2_acsr_ln5958865-1";
	spacing "spc_3ph_h-2_acsr2_acsr2_acsr2_acsr_ABCN";
	conductor_A "wire_2_acsr";
	conductor_B "wire_2_acsr";
	conductor_C "wire_2_acsr";
	conductor_N "wire_2_acsr";
}

object line_configuration {
	name "lcon_1ph-xx6_wpal6_wpal_ln6108128-2";
	spacing "spc_1ph-xx6_wpal6_wpal_CN";
	conductor_C "wire_6_wpal";
	conductor_N "wire_6_wpal";
}

object line_configuration {
	name "lcon_1ph-xx4_acsr4_tpx_ln5531226-1";
	spacing "spc_1ph-xx4_acsr4_tpx_CN";
	conductor_C "wire_4_acsr";
	conductor_N "wire_4_tpx";
}

object line_configuration {
	name "lcon_1ph-xx4_wpal4_acsr_ln6108135-1";
	spacing "spc_1ph-xx4_wpal4_acsr_CN";
	conductor_C "wire_4_wpal";
	conductor_N "wire_4_acsr";
}

object line_configuration {
	name "lcon_1ph-x4_acsrx4_acsr_ln5833720-1";
	spacing "spc_1ph-x4_acsrx4_acsr_BN";
	conductor_B "wire_4_acsr";
	conductor_N "wire_4_acsr";
}

object line_configuration {
	name "lcon_1ph-4_wpalxx4_acsr_ln5835146-1";
	spacing "spc_1ph-4_wpalxx4_acsr_AN";
	conductor_A "wire_4_wpal";
	conductor_N "wire_4_acsr";
}

object line_configuration {
	name "lcon_1ph-2_acsrxx4_wpal_ln5686245-2";
	spacing "spc_1ph-2_acsrxx4_wpal_AN";
	conductor_A "wire_2_acsr";
	conductor_N "wire_4_wpal";
}

object line_configuration {
	name "lcon_1ph-x4_wpalx1/0_tpx_ln6077771-1";
	spacing "spc_1ph-x4_wpalx1/0_tpx_BN";
	conductor_B "wire_4_wpal";
	conductor_N "wire_1/0_tpx";
}

object line_configuration {
	name "lcon_1ph-4_acsrxx4_acsr_ln6392977-2";
	spacing "spc_1ph-4_acsrxx4_acsr_AN";
	conductor_A "wire_4_acsr";
	conductor_N "wire_4_acsr";
}

object line_configuration {
	name "lcon_3ph-69kv_397_treewire_hvmv69s1s2-3";
	spacing "spc_3ph-69kv_397_treewire_ABCN";
	conductor_A "wire_397_aac_treewire";
	conductor_B "wire_397_aac_treewire";
	conductor_C "wire_397_aac_treewire";
	conductor_N "wire_2/0_acsr";
}

object line_configuration {
	name "lcon_1ph-xx4_acsr4_acsr_ln5744357-1";
	spacing "spc_1ph-xx4_acsr4_acsr_AN";
	conductor_A "wire_4_acsr";
	conductor_N "wire_4_acsr";
}

object line_configuration {
	name "lcon_3ph_h-4_wpal4_wpal4_wpal1/0_tpx_ln6411371-1";
	spacing "spc_3ph_h-4_wpal4_wpal4_wpal1/0_tpx_ABCN";
	conductor_A "wire_4_wpal";
	conductor_B "wire_4_wpal";
	conductor_C "wire_4_wpal";
	conductor_N "wire_1/0_tpx";
}

object line_configuration {
	name "lcon_1ph-x4_acsrx1/0_3w_cs_ln5775368-1";
	spacing "spc_1ph-x4_acsrx1/0_3w_cs_BN";
	conductor_B "wire_4_acsr";
	conductor_N "wire_1/0_3w_cs";
}

object line_configuration {
	name "lcon_3ph_h-4_acsr4_acsr4_acsr4_acsr_ln6380810-1";
	spacing "spc_3ph_h-4_acsr4_acsr4_acsr4_acsr_ABCN";
	conductor_A "wire_4_acsr";
	conductor_B "wire_4_acsr";
	conductor_C "wire_4_acsr";
	conductor_N "wire_4_acsr";
}

object line_configuration {
	name "lcon_1ph-xx2_acsr1/0_tpx_ln6229827-1";
	spacing "spc_1ph-xx2_acsr1/0_tpx_CN";
	conductor_C "wire_2_acsr";
	conductor_N "wire_1/0_tpx";
}

object line_configuration {
	name "lcon_1p_1/0_axnj_db_ln81048087-1";
	spacing "spc_1p_1/0_axnj_db_B";
	conductor_B "cncab_1/0_al_15kv_1/3";
}

object line_configuration {
	name "lcon_1ph-2_acsrxx2_acsr_ln5528079-3";
	spacing "spc_1ph-2_acsrxx2_acsr_CN";
	conductor_C "wire_2_acsr";
	conductor_N "wire_2_acsr";
}

object line_configuration {
	name "lcon_1ph-x4_acsrx4_acsr_ln5683000-1";
	spacing "spc_1ph-x4_acsrx4_acsr_AN";
	conductor_A "wire_4_acsr";
	conductor_N "wire_4_acsr";
}

object line_configuration {
	name "lcon_1ph-4_wpalxx4_wpal_ln5472359-1";
	spacing "spc_1ph-4_wpalxx4_wpal_AN";
	conductor_A "wire_4_wpal";
	conductor_N "wire_4_wpal";
}

object line_configuration {
	name "lcon_1ph-xx4_acsr4_wpal_ln5593235-1";
	spacing "spc_1ph-xx4_acsr4_wpal_AN";
	conductor_A "wire_4_acsr";
	conductor_N "wire_4_wpal";
}

object line_configuration {
	name "lcon_1ph-x4_acsrx4_dpx_ln6506308-1";
	spacing "spc_1ph-x4_acsrx4_dpx_BN";
	conductor_B "wire_4_acsr";
	conductor_N "wire_4_dpx";
}

object line_configuration {
	name "lcon_1ph-x4_wpalx4_wpal_ln5654485-1";
	spacing "spc_1ph-x4_wpalx4_wpal_BN";
	conductor_B "wire_4_wpal";
	conductor_N "wire_4_wpal";
}

object line_configuration {
	name "lcon_1ph-4_acsrxx4_acsr_ln6320366-1";
	spacing "spc_1ph-4_acsrxx4_acsr_CN";
	conductor_C "wire_4_acsr";
	conductor_N "wire_4_acsr";
}

object line_configuration {
	name "lcon_1ph-x2_acsrx4_acsr_ln6201698-2";
	spacing "spc_1ph-x2_acsrx4_acsr_BN";
	conductor_B "wire_2_acsr";
	conductor_N "wire_4_acsr";
}

object line_configuration {
	name "lcon_1ph-4_acsrxx2_acsr_ln5775367-1";
	spacing "spc_1ph-4_acsrxx2_acsr_AN";
	conductor_A "wire_4_acsr";
	conductor_N "wire_2_acsr";
}

object line_configuration {
	name "lcon_1ph-x2_acsrx2_acsr_ln2001215-1";
	spacing "spc_1ph-x2_acsrx2_acsr_CN";
	conductor_C "wire_2_acsr";
	conductor_N "wire_2_acsr";
}

object line_configuration {
	name "lcon_3ph_h-2/0_acsr2/0_acsr2/0_acsr2_wpal_ln6259996-1";
	spacing "spc_3ph_h-2/0_acsr2/0_acsr2/0_acsr2_wpal_ABCN";
	conductor_A "wire_2/0_acsr";
	conductor_B "wire_2/0_acsr";
	conductor_C "wire_2/0_acsr";
	conductor_N "wire_2_wpal";
}

object line_configuration {
	name "lcon_1ph-2/0_acsrxx2_acsr_ln6129680-2";
	spacing "spc_1ph-2/0_acsrxx2_acsr_AN";
	conductor_A "wire_2/0_acsr";
	conductor_N "wire_2_acsr";
}

object line_configuration {
	name "lcon_1ph-xx4_wpal4_wpal_ln6018241-1";
	spacing "spc_1ph-xx4_wpal4_wpal_CN";
	conductor_C "wire_4_wpal";
	conductor_N "wire_4_wpal";
}

object line_configuration {
	name "lcon_1ph-4_acsrxx1/0_tpx_ln6138596-1";
	spacing "spc_1ph-4_acsrxx1/0_tpx_AN";
	conductor_A "wire_4_acsr";
	conductor_N "wire_1/0_tpx";
}

object line_configuration {
	name "lcon_1p_1/0_axnj_db_ln8979370-1";
	spacing "spc_1p_1/0_axnj_db_A";
	conductor_A "cncab_1/0_al_15kv_1/3";
}

object line_configuration {
	name "lcon_3ph_h-4_acsr4_acsr4_acsr4_wpal_ln5927423-1";
	spacing "spc_3ph_h-4_acsr4_acsr4_acsr4_wpal_ABCN";
	conductor_A "wire_4_acsr";
	conductor_B "wire_4_acsr";
	conductor_C "wire_4_acsr";
	conductor_N "wire_4_wpal";
}

object line_configuration {
	name "lcon_1ph-xx2/0_acsr1/0_tpx_ln5866260-1";
	spacing "spc_1ph-xx2/0_acsr1/0_tpx_CN";
	conductor_C "wire_2/0_acsr";
	conductor_N "wire_1/0_tpx";
}

object line_configuration {
	name "lcon_1ph-x4_acsrx4_tpx_ln5804795-1";
	spacing "spc_1ph-x4_acsrx4_tpx_BN";
	conductor_B "wire_4_acsr";
	conductor_N "wire_4_tpx";
}

object line_configuration {
	name "lcon_1ph-xx4_acsr4_acsr_ln6138606-1";
	spacing "spc_1ph-xx4_acsr4_acsr_BN";
	conductor_B "wire_4_acsr";
	conductor_N "wire_4_acsr";
}

object line_configuration {
	name "lcon_1ph-x2_acsrx2_acsr_ln2001313-1";
	spacing "spc_1ph-x2_acsrx2_acsr_AN";
	conductor_A "wire_2_acsr";
	conductor_N "wire_2_acsr";
}

object line_configuration {
	name "lcon_1ph-x4_acsrx4_wpal_ln6137086-2";
	spacing "spc_1ph-x4_acsrx4_wpal_BN";
	conductor_B "wire_4_acsr";
	conductor_N "wire_4_wpal";
}

object line_configuration {
	name "lcon_1ph-x2_acsrx2_acsr_ln5835159-1";
	spacing "spc_1ph-x2_acsrx2_acsr_BN";
	conductor_B "wire_2_acsr";
	conductor_N "wire_2_acsr";
}

object line_configuration {
	name "lcon_3ph_h-4_wpal4_wpal4_wpal4_wpal_ln5956464-1";
	spacing "spc_3ph_h-4_wpal4_wpal4_wpal4_wpal_ABCN";
	conductor_A "wire_4_wpal";
	conductor_B "wire_4_wpal";
	conductor_C "wire_4_wpal";
	conductor_N "wire_4_wpal";
}

object line_configuration {
	name "lcon_3ph_h-397_acsr397_acsr397_acsr2/0_acsr_ln6291242-1";
	spacing "spc_3ph_h-397_acsr397_acsr397_acsr2/0_acsr_ABCN";
	conductor_A "wire_397_acsr";
	conductor_B "wire_397_acsr";
	conductor_C "wire_397_acsr";
	conductor_N "wire_2/0_acsr";
}

object line_configuration {
	name "lcon_1ph-xx4_acsr2_acsr_ln5741170-3";
	spacing "spc_1ph-xx4_acsr2_acsr_CN";
	conductor_C "wire_4_acsr";
	conductor_N "wire_2_acsr";
}

object line_configuration {
	name "lcon_1ph-x4_wpalx4_acsr_ln6047568-1";
	spacing "spc_1ph-x4_wpalx4_acsr_BN";
	conductor_B "wire_4_wpal";
	conductor_N "wire_4_acsr";
}

object line_configuration {
	name "lcon_1ph-xx4_acsr4_acsr_ln5563852-1";
	spacing "spc_1ph-xx4_acsr4_acsr_CN";
	conductor_C "wire_4_acsr";
	conductor_N "wire_4_acsr";
}

object line_configuration {
	name "lcon_2ph_h-2_acsrx2_acsr2_acsr_ln5637597-1";
	spacing "spc_2ph_h-2_acsrx2_acsr2_acsr_ACN";
	conductor_A "wire_2_acsr";
	conductor_C "wire_2_acsr";
	conductor_N "wire_2_acsr";
}

object line_configuration {
	name "lcon_cap_1c_PUZ_C";
	z33 1.00000+1.00000j;
	c33 0.0000;
}

object line_configuration {
	name "lcon_cap_3b_PUZ_B";
	z22 1.00000+1.00000j;
	c22 0.0000;
}

object line_configuration {
	name "lcon_cap_1b_PUZ_B";
	z22 1.00000+1.00000j;
	c22 0.0000;
}

object line_configuration {
	name "lcon_cap_3a_PUZ_A";
	z11 1.00000+1.00000j;
	c11 0.0000;
}

object line_configuration {
	name "lcon_cap_1a_PUZ_A";
	z11 1.00000+1.00000j;
	c11 0.0000;
}

object line_configuration {
	name "lcon_cap_2a_PUZ_A";
	z11 1.00000+1.00000j;
	c11 0.0000;
}

object line_configuration {
	name "lcon_cap_3c_PUZ_C";
	z33 1.00000+1.00000j;
	c33 0.0000;
}

object line_configuration {
	name "lcon_cap_2c_PUZ_C";
	z33 1.00000+1.00000j;
	c33 0.0000;
}

object line_configuration {
	name "lcon_cap_2b_PUZ_B";
	z22 1.00000+1.00000j;
	c22 0.0000;
}

object line_configuration {
	name "lcon_hvmv_sub_connector_ABC";
	z11 0.00160934+0.0160934j;
	c11 0.0000;
	z12 0.00000+0.00000j;
	c12 0.0000;
	z13 0.00000+0.00000j;
	c13 0.0000;
	z21 0.00000+0.00000j;
	c21 0.0000;
	z22 0.00160934+0.0160934j;
	c22 0.0000;
	z23 0.00000+0.00000j;
	c23 0.0000;
	z31 0.00000+0.00000j;
	c31 0.0000;
	z32 0.00000+0.00000j;
	c32 0.0000;
	z33 0.00160934+0.0160934j;
	c33 0.0000;
}

object line_configuration {
	name "lcon_ln5513564-2_ABC";
	z11 1.60934+1.60934j;
	c11 0.0000;
	z12 0.00000+0.00000j;
	c12 0.0000;
	z13 0.00000+0.00000j;
	c13 0.0000;
	z21 0.00000+0.00000j;
	c21 0.0000;
	z22 1.60934+1.60934j;
	c22 0.0000;
	z23 0.00000+0.00000j;
	c23 0.0000;
	z31 0.00000+0.00000j;
	c31 0.0000;
	z32 0.00000+0.00000j;
	c32 0.0000;
	z33 1.60934+1.60934j;
	c33 0.0000;
}

object triplex_line_configuration {
	name "tcon_4/0triplex_12";
	z11 2.16454+0.880800j;
	z12 0.623542+0.673688j;
	z21 0.623542+0.673688j;
	z22 2.16454+0.880800j;
}

object triplex_line_configuration {
	name "tcon_750_triplex_12";
	z11 0.262666+0.146913j;
	z12 0.123666+0.0353481j;
	z21 0.123666+0.0353481j;
	z22 0.262666+0.146913j;
}

object underground_line_conductor {
	name "cncab_1/0_al_15kv_1/3";
	neutral_gmr 0.000819;
	neutral_diameter 0.025197;
	neutral_resistance 4.103827;
	neutral_strands 6;
	conductor_gmr 0.011089;
	conductor_diameter 0.368110;
	conductor_resistance 0.970434;
	outer_diameter 1.078740;
	insulation_relative_permitivitty 2.30;
}

object node {
	name "l3195751";
	phases CN;
	nominal_voltage 7199.56;
}

object node {
	name "l2858163";
	phases ABCN;
	nominal_voltage 7199.56;
}

object node {
	name "m1069632";
	phases BN;
	nominal_voltage 7199.56;
}

object node {
	name "m1027056";
	phases AN;
	nominal_voltage 7199.56;
}

object node {
	name "n1136028";
	phases ABCN;
	nominal_voltage 7199.56;
}

object node {
	name "d6409775-4_int";
	phases AN;
	nominal_voltage 7199.56;
}

object node {
	name "m1026925";
	phases AN;
	nominal_voltage 7199.56;
}

object node {
	name "l2814529";
	phases ABCN;
	nominal_voltage 7199.56;
}

object node {
	name "m1026705";
	phases CN;
	nominal_voltage 7199.56;
}

object node {
	name "l3312692";
	phases AN;
	nominal_voltage 7199.56;
}

object node {
	name "l3235249";
	phases AN;
	nominal_voltage 7199.56;
}

object node {
	name "l2822866";
	phases ABCN;
	nominal_voltage 7199.56;
}

object node {
	name "m1026681";
	phases ABCN;
	nominal_voltage 7199.56;
}

object node {
	name "m1047518";
	phases BN;
	nominal_voltage 7199.56;
}

object node {
	name "l3728041";
	phases AN;
	nominal_voltage 7199.56;
}

object node {
	name "m1047485";
	phases ABCN;
	nominal_voltage 7199.56;
}

object node {
	name "n1137003";
	phases AN;
	nominal_voltage 7199.56;
}

object node {
	name "n1139551";
	phases ABCN;
	nominal_voltage 7199.56;
}

object node {
	name "m1027066";
	phases CN;
	nominal_voltage 7199.56;
}

object node {
	name "m1047722";
	phases ABCN;
	nominal_voltage 7199.56;
}

object node {
	name "l3085410";
	phases BN;
	nominal_voltage 7199.56;
}

object node {
	name "n1140526";
	phases CN;
	nominal_voltage 7199.56;
}

object node {
	name "l2895449";
	phases ABCN;
	nominal_voltage 7199.56;
}

object node {
	name "n1136664";
	phases AN;
	nominal_voltage 7199.56;
}

object node {
	name "m1026810";
	phases CN;
	nominal_voltage 7199.56;
}

object node {
	name "l2729427";
	phases BN;
	nominal_voltage 7199.56;
}

object node {
	name "n1136363";
	phases ABCN;
	nominal_voltage 7199.56;
}

object node {
	name "l3141389";
	phases AN;
	nominal_voltage 7199.56;
}

object node {
	name "l3103822";
	phases ABCN;
	nominal_voltage 7199.56;
}

object node {
	name "221-240988";
	phases CN;
	nominal_voltage 7199.56;
}

object node {
	name "l3649301";
	phases AN;
	nominal_voltage 7199.56;
}

object node {
	name "m1069513";
	phases ABCN;
	nominal_voltage 7199.56;
}

object node {
	name "p901931";
	phases CN;
	nominal_voltage 7199.56;
}

object node {
	name "l3727710";
	phases AN;
	nominal_voltage 7199.56;
}

object node {
	name "m3768670";
	phases ABCN;
	nominal_voltage 7199.56;
}

object node {
	name "p859135";
	phases AN;
	nominal_voltage 7199.56;
}

object node {
	name "n1137987";
	phases CN;
	nominal_voltage 7199.56;
}

object node {
	name "m1010007";
	phases AN;
	nominal_voltage 7199.56;
}

object node {
	name "m1026880";
	phases AN;
	nominal_voltage 7199.56;
}

object node {
	name "p901933";
	phases AN;
	nominal_voltage 7199.56;
}

object node {
	name "n1136993";
	phases AN;
	nominal_voltage 7199.56;
}

object node {
	name "m1047593";
	phases ABCN;
	nominal_voltage 7199.56;
}

object node {
	name "l3008232";
	phases BN;
	nominal_voltage 7199.56;
}

object node {
	name "n1137991";
	phases CN;
	nominal_voltage 7199.56;
}

object node {
	name "m1047780";
	phases BN;
	nominal_voltage 7199.56;
}

object node {
	name "m1047478";
	phases CN;
	nominal_voltage 7199.56;
}

object node {
	name "l2710515";
	phases CN;
	nominal_voltage 7199.56;
}

object node {
	name "n1136353";
	phases BN;
	nominal_voltage 7199.56;
}

object node {
	name "n1140828";
	phases ABCN;
	nominal_voltage 7199.56;
}

object node {
	name "l2952014";
	phases CN;
	nominal_voltage 7199.56;
}

object node {
	name "m4113345";
	phases CN;
	nominal_voltage 7199.56;
}

object node {
	name "l3066826";
	phases BN;
	nominal_voltage 7199.56;
}

object node {
	name "l2685809";
	phases AN;
	nominal_voltage 7199.56;
}

object node {
	name "m1047744";
	phases AN;
	nominal_voltage 7199.56;
}

object node {
	name "n1136367";
	phases ABCN;
	nominal_voltage 7199.56;
}

object node {
	name "m1069521";
	phases AN;
	nominal_voltage 7199.56;
}

object node {
	name "m1047813";
	phases BN;
	nominal_voltage 7199.56;
}

object node {
	name "l2989432";
	phases BN;
	nominal_voltage 7199.56;
}

object node {
	name "e206614";
	phases BN;
	nominal_voltage 7199.56;
}

object node {
	name "l3160106";
	phases AN;
	nominal_voltage 7199.56;
}

object node {
	name "l3122821";
	phases ABCN;
	nominal_voltage 7199.56;
}

object node {
	name "l2766748";
	phases AN;
	nominal_voltage 7199.56;
}

object node {
	name "m1026820";
	phases CN;
	nominal_voltage 7199.56;
}

object node {
	name "m1009720";
	phases ABCN;
	nominal_voltage 7199.56;
}

object node {
	name "l3085403";
	phases AN;
	nominal_voltage 7199.56;
}

object node {
	name "m1009824";
	phases BN;
	nominal_voltage 7199.56;
}

object node {
	name "l2954355";
	phases AN;
	nominal_voltage 7199.56;
}

object node {
	name "l2804248";
	phases BN;
	nominal_voltage 7199.56;
}

object node {
	name "m1069613";
	phases BN;
	nominal_voltage 7199.56;
}

object node {
	name "d5860450-1_int";
	phases ABCN;
	nominal_voltage 7199.56;
}

object node {
	name "l3207907";
	phases ABCN;
	nominal_voltage 7199.56;
}

object node {
	name "m1047793";
	phases BN;
	nominal_voltage 7199.56;
}

object node {
	name "m1026946";
	phases BN;
	nominal_voltage 7199.56;
}

object node {
	name "l2841641";
	phases BN;
	nominal_voltage 7199.56;
}

object node {
	name "m1026697";
	phases ABCN;
	nominal_voltage 7199.56;
}

object node {
	name "n1140827";
	phases ABCN;
	nominal_voltage 7199.56;
}

object node {
	name "m1069544";
	phases BN;
	nominal_voltage 7199.56;
}

object node {
	name "n1147862";
	phases AN;
	nominal_voltage 7199.56;
}

object node {
	name "l2879069";
	phases AN;
	nominal_voltage 7199.56;
}

object node {
	name "m1027039";
	phases ABCN;
	nominal_voltage 7199.56;
}

object node {
	name "196-29518";
	phases ABCN;
	nominal_voltage 7199.56;
}

object node {
	name "p827537";
	phases AN;
	nominal_voltage 7199.56;
}

object node {
	name "m1026701";
	phases ABCN;
	nominal_voltage 7199.56;
}

object node {
	name "m1026926";
	phases ABCN;
	nominal_voltage 7199.56;
}

object node {
	name "l2879092";
	phases CN;
	nominal_voltage 7199.56;
}

object node {
	name "l2766724";
	phases CN;
	nominal_voltage 7199.56;
}

object node {
	name "m1069620";
	phases BN;
	nominal_voltage 7199.56;
}

object node {
	name "m1026655";
	phases ABCN;
	nominal_voltage 7199.56;
}

object node {
	name "m1026941";
	phases AN;
	nominal_voltage 7199.56;
}

object node {
	name "l3065696";
	phases AN;
	nominal_voltage 7199.56;
}

object node {
	name "l3216350";
	phases AN;
	nominal_voltage 7199.56;
}

object node {
	name "l2860478";
	phases BN;
	nominal_voltage 7199.56;
}

object node {
	name "m1026931";
	phases AN;
	nominal_voltage 7199.56;
}

object node {
	name "m1047503";
	phases ABCN;
	nominal_voltage 7199.56;
}

object node {
	name "l3632979";
	phases AN;
	nominal_voltage 7199.56;
}

object node {
	name "m1026chp-1";
	phases ABCN;
	nominal_voltage 7199.56;
}

object node {
	name "l2991908";
	phases AN;
	nominal_voltage 7199.56;
}

object node {
	name "n1136357";
	phases CN;
	nominal_voltage 7199.56;
}

object node {
	name "m1026984";
	phases ABCN;
	nominal_voltage 7199.56;
}

object node {
	name "l2879089";
	phases CN;
	nominal_voltage 7199.56;
}

object node {
	name "m1069560";
	phases BN;
	nominal_voltage 7199.56;
}

object node {
	name "m1027001";
	phases BN;
	nominal_voltage 7199.56;
}

object node {
	name "n1136998";
	phases ABCN;
	nominal_voltage 7199.56;
}

object node {
	name "m1026734";
	phases AN;
	nominal_voltage 7199.56;
}

object node {
	name "l3226771";
	phases AN;
	nominal_voltage 7199.56;
}

object node {
	name "l2745799";
	phases CN;
	nominal_voltage 7199.56;
}

object node {
	name "l3066811";
	phases BN;
	nominal_voltage 7199.56;
}

object node {
	name "m1069627";
	phases BN;
	nominal_voltage 7199.56;
}

object node {
	name "l2689691";
	phases ABCN;
	nominal_voltage 7199.56;
}

object node {
	name "n1140823";
	phases ABCN;
	nominal_voltage 7199.56;
}

object node {
	name "n1136672";
	phases CN;
	nominal_voltage 7199.56;
}

object node {
	name "m3763618";
	phases ABCN;
	nominal_voltage 7199.56;
}

object node {
	name "l2820556";
	phases AN;
	nominal_voltage 7199.56;
}

object node {
	name "l2673308";
	phases ABCN;
	nominal_voltage 7199.56;
}

object node {
	name "n1136668";
	phases BN;
	nominal_voltage 7199.56;
}

object node {
	name "d5655682-1_int";
	phases BN;
	nominal_voltage 7199.56;
}

object node {
	name "196-29520";
	phases ABCN;
	nominal_voltage 7199.56;
}

object node {
	name "l3254216";
	phases AN;
	nominal_voltage 7199.56;
}

object node {
	name "m1026795";
	phases ABCN;
	nominal_voltage 7199.56;
}

object node {
	name "e182732";
	phases ABCN;
	nominal_voltage 7199.56;
}

object node {
	name "m3037453";
	phases CN;
	nominal_voltage 7199.56;
}

object node {
	name "l2991939";
	phases ABCN;
	nominal_voltage 7199.56;
}

object node {
	name "m1069503";
	phases ABCN;
	nominal_voltage 7199.56;
}

object node {
	name "l3010561";
	phases AN;
	nominal_voltage 7199.56;
}

object node {
	name "l3216348";
	phases AN;
	nominal_voltage 7199.56;
}

object node {
	name "d5653457-1_int";
	phases ABCN;
...